Version 4.1
SHEET 1 904 680
SYMBOL voltage 48 64 R0
SYMATTR InstName V1
SYMBOL voltage 160 272 R0
SYMATTR InstName V2
SYMBOL Digital\\xor 432 -32 R0
SYMATTR InstName A1
SYMBOL Digital\\xor 784 -32 R0
SYMATTR InstName A2
SYMBOL Digital\\and 464 160 R0
SYMATTR InstName A3
SYMBOL Digital\\and 816 160 R0
SYMATTR InstName A4
SYMBOL Digital\\or 864 352 R0
SYMATTR InstName A5
SYMBOL voltage 608 272 R0
SYMATTR InstName V3
